  Page 1                                           2/18/2023 11:16:12 AM
  **********************************************************************
  *                             E P A N E T                            *
  *                     Hydraulic and Water Quality                    *
  *                     Analysis for Pipe Networks                     *
  *                           Version 2.2                              *
  **********************************************************************
  
  Input File: practice_file.net
  
  
  
  Link - Node Table:
  ----------------------------------------------------------------------
  Link           Start          End                Length  Diameter
  ID             Node           Node                    m        mm
  ----------------------------------------------------------------------
  P1             1              2                  310.84       200
  P2             2              3                   88.20       150
  P3             3              4                   89.23       150
  P4             4              5                  104.25       110
  P5             5              6                   46.08       110
  P6             6              7                   44.86       110
  P7             7              8                   86.12       110
  P8             8              9                  613.88       110
  P9             9              11                  29.95       110
  P10            11             12                  70.63       110
  P11            12             13                  71.60        50
  P12            13             14                 113.29        50
  P13            14             15                  60.17        50
  P14            15             16                  60.55        50
  P15            16             17                  60.74        50
  P16            17             18                  49.37        50
  P17            18             19                  31.85        50
  P18            R1             1                   48.51        50
  
  Node Results:
  ----------------------------------------------------------------------
  Node                Demand      Head  Pressure   Quality
  ID                     LPS         m         m          
  ----------------------------------------------------------------------
  1                     0.50   1002.06      1.56      0.00
  2                     0.30   1001.97     73.17      0.00
  3                     0.30   1001.87     87.77      0.00
  4                     0.30   1001.78     97.28      0.00
  5                     0.30   1001.32     99.52      0.00
  6                     0.30   1001.13     97.13      0.00
  7                     0.45   1000.97     99.17      0.00
  8                     0.30   1000.70    102.30      0.00
  9                     0.30    998.98    115.98      0.00
  11                    0.30    998.91    117.71      0.00
  12                    0.30    998.75    132.15      0.00
  13                    0.70    991.45    118.35      0.00
  14                    0.90    983.56    123.86      0.00


  Page 2                                                                
  Node Results: (continued)
  ----------------------------------------------------------------------
  Node                Demand      Head  Pressure   Quality
  ID                     LPS         m         m          
  ----------------------------------------------------------------------
  15                    1.10    981.34    116.34      0.00
  16                    0.30    980.69    120.69      0.00
  17                    0.30    980.30    150.30      0.00
  18                    0.30    980.15    152.15      0.00
  19                    0.30    980.12    155.12      0.00
  R1                   -7.55   1020.00      0.00      0.00 Reservoir
  
  Link Results:
  ----------------------------------------------------------------------
  Link                  Flow  VelocityUnit Headloss    Status
  ID                     LPS       m/s      m/km
  ----------------------------------------------------------------------
  P1                    7.05      0.22      0.30      Open
  P2                    6.75      0.38      1.13      Open
  P3                    6.45      0.36      1.04      Open
  P4                    6.15      0.65      4.44      Open
  P5                    5.85      0.62      4.04      Open
  P6                    5.55      0.58      3.66      Open
  P7                    5.10      0.54      3.13      Open
  P8                    4.80      0.51      2.79      Open
  P9                    4.50      0.47      2.47      Open
  P10                   4.20      0.44      2.18      Open
  P11                   3.90      1.99    102.01      Open
  P12                   3.20      1.63     69.62      Open
  P13                   2.30      1.17     36.95      Open
  P14                   1.20      0.61     10.81      Open
  P15                   0.90      0.46      6.33      Open
  P16                   0.60      0.31      3.01      Open
  P17                   0.30      0.15      0.87      Open
  P18                   7.55      3.85    369.73      Open
  
